>QUERY  
MGCWGQLLVWFGAAGAILCSSPGSQETFLRSSPLPLASPSPRDPKVSAPPSILEPASPLN
SPGTEGSWLFSTCGASGRHGPTQTQCDGAYAGTSVVVTVGAAGQLRGVQLWRVPGPGQYL
ISAYGAAGGKGAKNHLSRAHGVFVSAIFSLGLGESLYILVGQQGEDACPGGSPESQLVCL
GESRAVEEHAAMDGSEGVPGSRRWAGGGGGGGGATYVFRVRAGELEPLLVAAGGGGRAYL
RPRDRGRTQASPEKLENRSEAPGSGGRGGAAGGGGGWTSRAPSPQAGRSLQEGAEGGQGC
SEAWATLGWAAAGGFGGGGGACTAGGGGGGYRGGDASETDNLWADGEDGVSFIHPSSELF
LQPLAVTENHGEVEIRRHLNCSHCPLRDCQWQAELQLAECLCPEGMELAVDNVTCMDLHK
PPGPLVLMVAVVATSTLSLLMVCGVLILVKQKKWQGLQEMRLPSPELELSKLRTSAIRTA
PNPYYCQVGLGPAQSWPLPPGVTEVSPANVTLLRALGHGAFGEVYEGLVIGLPGDSSPLQ
VAIKTLPELCSPQDELDFLMEALIISKFRHQNIVRCVGLSLRATPRLILLELMSGGDMKS
FLRHSRPHLGQPSPLVMRDLLQLAQDIAQGCHYLEENHFIHRDIAARNCLLSCAGPSRVA
KIGDFGMARDIYRASYYRRGDRALLPVKWMPPEAFLEGIFTSKTDSWSFGVLLWEIFSLG
YMPYPGRTNQEVLDFVVGGGRMDPPRGCPGPVYRIMTQCWQHEPELRPSFASILERLQYC
TQDPDVLNSLLPMELGPTPEEEGTSGLGNRSLECLRPPQPQELSPEKLKSWGGSPLGPWL
SSGLKPLKSRGLQPQNLWNPTYRS
>P29376  SP:LTK_HUMAN P29376 Leukocyte tyrosine kinase receptor
MGCWGQLLVWFGAAGAILCSSPGSQETFLRSSPLPLASPSPRDPKVSAPPSILEPASPLN
SPGTEGSWLFSTCGASGRHGPTQTQCDGAYAGTSVVVTVGAAGQLRGVQLWRVPGPGQYL
ISAYGAAGGKGAKNHLSRAHGVFVSAIFSLGLGESLYILVGQQGEDACPGGSPESQLVCL
GESRAVEEHAAMDGSEGVPGSRRWAGGGGGGGGATYVFRVRAGELEPLLVAAGGGGRAYL
RPRDRGRTQASPEKLENRSEAPGSGGRGGAAGGGGGWTSRAPSPQAGRSLQEGAEGGQGC
SEAWATLGWAAAGGFGGGGGACTAGGGGGGYRGGDASETDNLWADGEDGVSFIHPSSELF
LQPLAVTENHGEVEIRRHLNCSHCPLRDCQWQAELQLAECLCPEGMELAVDNVTCMDLHK
PPGPLVLMVAVVATSTLSLLMVCGVLILVKQKKWQGLQEMRLPSPELELSKLRTSAIRTA
PNPYYCQVGLGPAQSWPLPPGVTEVSPANVTLLRALGHGAFGEVYEGLVIGLPGDSSPLQ
VAIKTLPELCSPQDELDFLMEALIISKFRHQNIVRCVGLSLRATPRLILLELMSGGDMKS
FLRHSRPHLGQPSPLVMRDLLQLAQDIAQGCHYLEENHFIHRDIAARNCLLSCAGPSRVA
KIGDFGMARDIYRASYYRRGDRALLPVKWMPPEAFLEGIFTSKTDSWSFGVLLWEIFSLG
YMPYPGRTNQEVLDFVVGGGRMDPPRGCPGPVYRIMTQCWQHEPELRPSFASILERLQYC
TQDPDVLNSLLPMELGPTPEEEGTSGLGNRSLECLRPPQPQELSPEKLKSWGGSPLGPWL
SSGLKPLKSRGLQPQNLWNPTYRS
>A2AQ22  
MGCSHRLLLWLGAAGTILCSNSEFQTPFLTPSLLPVLVLNSQEQKVTPTPSKLEPASLPN
PLGTRGPWVFNTCGASGRSGPTQTQCDGAYTGSSVMVTVGAAGPLKGVQLWRVPDTGQYL
ISAYGAAGGKGAQNHLSRAHGIFLSAVFFLRRGEPVYILVGQQGQDACPGGSPESQLVCL
GESG---EHATTYGTERIPGWRRWAGGGGGGGGATSIFRLRAGEPEPLLVAAGGGGRSYR
RRPDRGRTQAVPERLETRAAAPGSGGRGGAAGGGSGWTSRAHSPQAGRSPREGAEGGEGC
AEAWAALRWAAAGGFGGGGGACAAGGGGGGYRGGDTSESDLLWADGEDGTSFVHPSGELY
LQPLAVTEGHGEVEIRKHPNCSHCPFKDCQWQAELWTAECTCPEGTELAVDNVTCMDLPT
TASPLILMGAVVAALALSLLMMCAVLILVNQK-CQGLWGTRLPGPELELSKLRSSAIRTA
PNPYYCQVGLSPAQPWPLPPGLTEVSPANVTLLRALGHGAFGEVYEGLVTGLPGDSSPLP
VAIKTLPELCSHQDELDFLMEALIISKFSHQNIVRCVGLSFRSAPRLILLELMSGGDMKS
FLRHSRPHPGQLAPLTMQDLLQLAQDIAQGCHYLEENHFIHRDIAARNCLLSCSGASRVA
KIGDFGMARDIYQASYYRKGGRTLLPVKWMPPEALLEGLFTSKTDSWSFGVLLWEIFSLG
YMPYPGHTNQEVLDFIATGNRMDPPRNCPGPVYRIMTQCWQHQPELRPDFGSILERIQYC
TQDPDVLNSPLPVEPGPILEEEEASRLGNRSLEGLRSPKPLELSSQNLKSWGGGLLGSWL
PSGLKTLKPRCLQPQNIWNPTYGS
>P08923  SP:LTK_MOUSE P08923 Leukocyte tyrosine kinase receptor
MGCSHRLLLWLGAAGTILCSNSEFQAPFLTPSLLPVLVLNSQEQKVTPTPSKLEPASLPN
PLGTRGPWVFNTCGASGRSGPTQTQCDGAYTGSSVMVTVGAAGPLKGVQLWRAPDTGQYL
ISAYGAAGGKGAQNHLSRAHGIFLSAVFFLRRGEPVYILVGQQGQDACPGGSPESQLVCL
GESG---EHATTYGTERIPGWRRWAGGGGGGGGATSIFRLRAGEPEPLLVAAGGGGRSYR
RRPDRGRTQAVPERLETRAAAPGSGGRGGAAGGGSGWTSRAHSPQAGRSPREGAEGGEGC
AEAWAALRWAAAGGFGGGGGACAAGGGGGGYRGGDTSESDLLWADGEDGTSFVHPSGELY
LQPLAVTEGHGEVEIRKHPNCSHCPFKDCQWQAELWTAECTCPEGTELAVDNVTCMDLPT
TASPLILMGAVVAALALSLLMMCAVLILVNQK-CQGLWGTRLPGPELELSKLRSSAIRTA
PNPYYCQVGLSPAQPWPLPPGLTEVSPANVTLLRALGHGAFGEVYEGLVTGLPGDSSPLP
VAIKTLPELCSHQDELDFLMEALIISKFSHQNIVRCVGLSFRSAPRLILLELMSGGDMKS
FLRHSRPHPGQLAPLTMQDLLQLAQDIAQGCHYLEENHFIHRDIAARNCLLSCSGASRVA
KIGDFGMARDIYQASYYRKGGRTLLPVKWMPPEALLEGLFTSKTDSWSFGVLLWEIFSLG
YMPYPGHTNQEVLDFIATGNRMDPPRNCPGPVYRIMTQCWQHQPELRPDFGSILERIQYC
TQDPDVLNSPLPMEPGPILEEEEASRLGNRSLEGLRSPKPLELSSQNLKSWGGGLLGSWL
PSGLKTLKPRCLQPQNIWNPTYGS
>D1MAM2  
XXXWLQMVAWWGQGSRAIVAFDNSLDCYLTISILQNTAPKSRNLFERNPNKELKPGSPRQ
TPIFDPHWLFTTCGASGPHGPTQAQCNNAYQNSNLSVEVGSEGPLKGIQIWKVPATDTYS
ISGYGAAGGKGGKNTMMRSHGVSVLGIFNLEKDDMLYILVGQQGEDACPSTNQLIQKVCI
GENNVIEEEIRVNRS-----VHEWAGGGGGGGGATYVFKMKDGVPVPLIIAAGGGGRAYG
AKTDTFH----PERLENNSSVLGLNGNSGAAGGGGGWNDNTSLLWAGKSLQEGATGGHSC
PQAMKKWGWETRGGFGGGGGGCSSGGGGGGYIGGNAASNNDPEMDGEDGVSFISPLGILY
TPALKVMEGHGEVNIKHYLNCSHCEVDECHMDPESHKVICFCDHGTVLAEDGVSCIPTPE
PHLPLSLILSVVTSALVALVLAFSGIMIVYRRKHQELQQMELQSPEYKLSKLRTSTIMTD
YNPNYCFAGKTSSIS-----DLKEVPRKNITLIRGLGHGAFGEVYEGQVSGMPNDPSPLQ
VAVKTLPEVCSEQDELDFLMEALIISKFNHQNIVRCIGVSLQSLPRFILMELMAGGDLKS
FLRETRPRPSQPSSLAMLDLLHVARDIACGCQYLEENHFIHRDIAARNCLLTCPGPGRVA
KIGDFGMARDIYRASYYRKGGCAMLPVKWMPPEAFMEGIFTSKTDTWSFGVLLWEIFSLG
YMPYPSKSNQEVLEFVTSGGRMDPPKNCPGPVYRIMTQCWQHQPEDRPNFAIILERIEYC
TQDPDVINTALPIEYGPLVEEEEKVPVRPKDPEGVPPKREEERSPTAAEISVRVPRGPAV
PSELHKVHGSRNKPTSLWNPTYGS
>B6D4Y2  
XXXWLQMVAWWGQGSRAIVAFDNSLDCYLTISILQNTAPKSRNLFERNPNKELKPGSPRQ
TPIFDPHWLFTTCGASGPHGPTQAQCNNAYQNSNLSVEVGSEGPLKGIQIWKVPATDTYS
ISGYGAAGGKGGKNTMMRSHGVSVLGIFNLEKDDMLYILVGQQGEDACPSTNQLIQKVCI
GENNVIEEEIRVNRS-----VHEWAGGGGGGGGATYVFKMKDGVPVPLIIAAGGGGRAYG
AKTDTFH----PERLENNSSVLGLNGNSGAAGGGGGWNDNTSLLWAGKSLQEGATGGHSC
PQAMKKWGWETRGGFGGGGGGCSSGGGGGGYIGGNAASNNDPEMDGEDGVSFISPLGILY
TPALKVMEGHGEVNIKHYLNCSHCEVDECHMDPESHKVICFCDHGTVLAEDGVSCIPTPE
PHLPLSLILSVVTSALVALVLAFSGIMIVYRRKHQELQQMELQSPEYKLSKLRTSIIMTD
YNPNYCFAGKTSSIS-----DLKEVPRKNITLIRGLGHGAFGEVYEGQVSGMPNDPSPLQ
VAVKTLPEVCSEQDELDFLMEALIISKFNHQNIVRCIGVSLQSLPRFILLELMAGGDLKS
FLRETRPRPSQPSSLAMLDLLHVARDIACGCQYLEENHFIHRDIAARNCLLTCPGPGRVA
KIGDFGMARDIYRASYYRKGGCAMLPVKWMPPEAFMEGIFTSKTDTWSFGVLLWEIFSLG
YMPYPSKSNQEVLEFVTSGGRMDPPKNCPGPVYRIMTQCWQHQPEDRPNFAIILERIEYC
TQDPDVINTALPIEYGPLVEEEEKVPVRPKDPEGVPPKREEERSPTAAEISVRVPRGPAV
PSELHKVHGSRNKPTSLWNPTYGS
>Q9UM73  SP:ALK_HUMAN Q9UM73 ALK tyrosine kinase receptor OS=Homo
XXXWLQMVAWWGQGSRAIVAFDNSLDCYLTISILQNTAPKSRNLFERNPNKELKPGSPRQ
TPIFDPHWLFTTCGASGPHGPTQAQCNNAYQNSNLSVEVGSEGPLKGIQIWKVPATDTYS
ISGYGAAGGKGGKNTMMRSHGVSVLGIFNLEKDDMLYILVGQQGEDACPSTNQLIQKVCI
GENNVIEEEIRVNRS-----VHEWAGGGGGGGGATYVFKMKDGVPVPLIIAAGGGGRAYG
AKTDTFH----PERLENNSSVLGLNGNSGAAGGGGGWNDNTSLLWAGKSLQEGATGGHSC
PQAMKKWGWETRGGFGGGGGGCSSGGGGGGYIGGNAASNNDPEMDGEDGVSFISPLGILY
TPALKVMEGHGEVNIKHYLNCSHCEVDECHMDPESHKVICFCDHGTVLAEDGVSCIPTPE
PHLPLSLILSVVTSALVALVLAFSGIMIVYRRKHQELQQMELQSPEYKLSKLRTSTIMTD
YNPNYCFAGKTSSIS-----DLKEVPRKNITLIRGLGHGAFGEVYEGQVSGMPNDPSPLQ
VAVKTLPEVCSEQDELDFLMEALIISKFNHQNIVRCIGVSLQSLPRFILLELMAGGDLKS
FLRETRPRPSQPSSLAMLDLLHVARDIACGCQYLEENHFIHRDIAARNCLLTCPGPGRVA
KIGDFGMARDIYRASYYRKGGCAMLPVKWMPPEAFMEGIFTSKTDTWSFGVLLWEIFSLG
YMPYPSKSNQEVLEFVTSGGRMDPPKNCPGPVYRIMTQCWQHQPEDRPNFAIILERIEYC
TQDPDVINTALPIEYGPLVEEEEKVPVRPKDPEGVPPKREEERSPTAAEISVRVPRGPAV
PSELHKVHGSRNKPTSLWNPTYGS
>D1MAM0  
XXXWLQMVAWWGQGSRAIVAFDNSLDCYLTISILQNTAPKSRNLFERNPNKELKPGSPRQ
TPIFDPHWLFTTCGASGPHGPTQAQCNNAYQNSNLSVEVGSEGPLKGIQIWKVPATDTYS
ISGYGAAGGKGGKNTMMRSHGVSVLGIFNLEKDDMLYILVGQQGEDACPSTNQLIQKVCI
GENNVIEEEIRVNRS-----VHEWAGGGGGGGGATYVFKMKDGVPVPLIIAAGGGGRAYG
AKTDTFH----PERLENNSSVLGLNGNSGAAGGGGGWNDNTSLLWAGKSLQEGATGGHSC
PQAMKKWGWETRGGFGGGGGGCSSGGGGGGYIGGNAASNNDPEMDGEDGVSFISPLGILY
TPALKVMEGHGEVNIKHYLNCSHCEVDECHMDPESHKVICFCDHGTVLAEDGVSCIPTPE
PHLPLSLILSVVTSALVALVLAFSGIMIVYRRKHQELQQMELQSPEYKLSKLRTSTIMTD
YNPNYCFAGKTSSIS-----DLKEVPRKNITLIRGLGHGAFGEVYEGQVSGMPNDPSPLQ
VAVKMLPEVCSEQDELDFLMEALIISKFNHQNIVRCIGVSLQSLPRFILLELMAGGDLKS
FLRETRPRPSQPSSLAMLDLLHVARDIACGCQYLEENHFIHRDIAARNCLLTCPGPGRVA
KIGDFGMARDIYRASYYRKGGCAMLPVKWMPPEAFMEGIFTSKTDTWSFGVLLWEIFSLG
YMPYPSKSNQEVLEFVTSGGRMDPPKNCPGPVYRIMTQCWQHQPEDRPNFAIILERIEYC
TQDPDVINTALPIEYGPLVEEEEKVPVRPKDPEGVPPKREEERSPTAAEISVRVPRGPAV
PSELHKVHGSRNKPTSLWNPTYGS
>B6D4Y3  
XXXWLQMVAWWGQGSRAIVAFDNSLDCYLTISILQNTAPKSRNLFERNPNKELKPGSPRQ
TPIFDPHWLFTTCGASGPHGPTQAQCNNAYQNSNLSVEVGSEGPLKGIQIWKVPATDTYS
ISGYGAAGGKGGKNTMMRSHGVSVLGIFNLEKDDMLYILVGQQGEDACPSTNQLIQKVCI
GENNVIEEEIRVNRS-----VHEWAGGGGGGGGATYVFKMKDGVPVPLIIAAGGGGRAYG
AKTDTFH----PERLENNSSVLGLNGNSGAAGGGGGWNDNTSLLWAGKSLQEGATGGHSC
PQAMKKWGWETRGGFGGGGGGCSSGGGGGGYIGGNAASNNDPEMDGEDGVSFISPLGILY
TPALKVMEGHGEVNIKHYLNCSHCEVDECHMDPESHKVICFCDHGTVLAEDGVSCIPTPE
PHLPLSLILSVVTSALVALVLAFSGIMIVYRRKHQELQQMELQSPEYKLSKLRTSTIMTD
YNPNYCFAGKTSSIS-----DLKEVPRKNITLIRGLGHGAFGEVYEGQVSGMPNDPSPLQ
VAVKTLPEVCSEQDELDFLMEALIISKLNHQNIVRCIGVSLQSLPRFILLELMAGGDLKS
FLRETRPRPSQPSSLAMLDLLHVARDIACGCQYLEENHFIHRDIAARNCLLTCPGPGRVA
KIGDFGMARDIYRASYYRKGGCAMLPVKWMPPEAFMEGIFTSKTDTWSFGVLLWEIFSLG
YMPYPSKSNQEVLEFVTSGGRMDPPKNCPGPVYRIMTQCWQHQPEDRPNFAIILERIEYC
TQDPDVINTALPIEYGPLVEEEEKVPVRPKDPEGVPPKREEERSPTAAEISVRVPRGPAV
PSELHKVHGSRNKPTSLWNPTYGS
>D1MAM3  
XXXWLQMVAWWGQGSRAIVAFDNSLDCYLTISILQNTAPKSRNLFERNPNKELKPGSPRQ
TPIFDPHWLFTTCGASGPHGPTQAQCNNAYQNSNLSVEVGSEGPLKGIQIWKVPATDTYS
ISGYGAAGGKGGKNTMMRSHGVSVLGIFNLEKDDMLYILVGQQGEDACPSTNQLIQKVCI
GENNVIEEEIRVNRS-----VHEWAGGGGGGGGATYVFKMKDGVPVPLIIAAGGGGRAYG
AKTDTFH----PERLENNSSVLGLNGNSGAAGGGGGWNDNTSLLWAGKSLQEGATGGHSC
PQAMKKWGWETRGGFGGGGGGCSSGGGGGGYIGGNAASNNDPEMDGEDGVSFISPLGILY
TPALKVMEGHGEVNIKHYLNCSHCEVDECHMDPESHKVICFCDHGTVLAEDGVSCIPTPE
PHLPLSLILSVVTSALVALVLAFSGIMIVYRRKHQELQQMELQSPEYKLSKLRTSTIMTD
YNPNYCFAGKTSSIS-----DLKEVPRKNITLIRGLGHGAFGEVYEGQVSGMPNDPSPLQ
VAVKTLPEVCSEQDELDFLMEALIISKFNHQNIVRCIGVSLQSLPRFILLELMVGGDLKS
FLRETRPRPSQPSSLAMLDLLHVARDIACGCQYLEENHFIHRDIAARNCLLTCPGPGRVA
KIGDFGMARDIYRASYYRKGGCAMLPVKWMPPEAFMEGIFTSKTDTWSFGVLLWEIFSLG
YMPYPSKSNQEVLEFVTSGGRMDPPKNCPGPVYRIMTQCWQHQPEDRPNFAIILERIEYC
TQDPDVINTALPIEYGPLVEEEEKVPVRPKDPEGVPPKREEERSPTAAEISVRVPRGPAV
PSELHKVHGSRNKPTSLWNPTYGS
>B6D4Y1  
XXXWLQMVAWWGQGSRAIVAFDNSLDCYLTISILQNTAPKSRNLFERNPNKELKPGSPRQ
TPIFDPHWLFTTCGASGPHGPTQAQCNNAYQNSNLSVEVGSEGPLKGIQIWKVPATDTYS
ISGYGAAGGKGGKNTMMRSHGVSVLGIFNLEKDDMLYILVGQQGEDACPSTNQLIQKVCI
GENNVIEEEIRVNRS-----VHEWAGGGGGGGGATYVFKMKDGVPVPLIIAAGGGGRAYG
AKTDTFH----PERLENNSSVLGLNGNSGAAGGGGGWNDNTSLLWAGKSLQEGATGGHSC
PQAMKKWGWETRGGFGGGGGGCSSGGGGGGYIGGNAASNNDPEMDGEDGVSFISPLGILY
TPALKVMEGHGEVNIKHYLNCSHCEVDECHMDPESHKVICFCDHGTVLAEDGVSCIPTPE
PHLPLSLILSVVTSALVALVLAFSGIMIVYRRMHQELQQMELQSPEYKLSKLRTSTIMTD
YNPNYCFAGKTSSIS-----DLKEVPRKNITLIRGLGHGAFGEVYEGQVSGMPNDPSPLQ
VAVKTLPEVCSEQDELDFLMEALIISKFNHQNIVRCIGVSLQSLPRFILLELMAGGDLKS
FLRETRPRPSQPSSLAMLDLLHVARDIACGCQYLEENHFIHRDIAARNCLLTCPGPGRVA
KIGDFGMARDIYRASYYRKGGCAMLPVKWMPPEAFMEGIFTSKTDTWSFGVLLWEIFSLG
YMPYPSKSNQEVLEFVTSGGRMDPPKNCPGPVYRIMTQCWQHQPEDRPNFAIILERIEYC
TQDPDVINTALPIEYGPLVEEEEKVPVRPKDPEGVPPKREEERSPTAAEISVRVPRGPAV
PSELHKVHGSRNKPTSLWNPTYGS
>D1MAM4  
XXXWLQMVAWWGQGSRAIVAFDNSLDCYLTISILQNTAPKSRNLFERNPNKELKPGSPRQ
TPIFDPHWLFTTCGASGPHGPTQAQCNNAYQNSNLSVEVGSEGPLKGIQIWKVPATDTYS
ISGYGAAGGKGGKNTMMRSHGVSVLGIFNLEKDDMLYILVGQQGEDACPSTNQLIQKVCI
GENNVIEEEIRVNRS-----VHEWAGGGGGGGGATYVFKMKDGVPVPLIIAAGGGGRAYG
AKTDTFH----PERLENNSSVLGLNGNSGAAGGGGGWNDNTSLLWAGKSLQEGATGGHSC
PQAMKKWGWETRGGFGGGGGGCSSGGGGGGYIGGNAASNNDPEMDGEDGVSFISPLGILY
TPALKVMEGHGEVNIKHYLNCSHCEVDECHMDPESHKVICFCDHGTVLAEDGVSCIPTPE
PHLPLSLILSVVTSALVALVLAFSGIMIVYRRKHQELQQMELQSPEYKLSKLRTSTIMTD
YNPNYCFAGKTSSIS-----DLKEVPRKNITLIRGLGHGAFGEVYEGQVSGMPNDPSPLQ
VAVKTLPEVCSEQDELDFLMEALIISKFNHQNIVRCIGVSLQSLPRFILLELMAGGDFKS
FLRETRPRPSQPSSLAMLDLLHVARDIACGCQYLEENHFIHRDIAARNCLLTCPGPGRVA
KIGDFGMARDIYRASYYRKGGCAMLPVKWMPPEAFMEGIFTSKTDTWSFGVLLWEIFSLG
YMPYPSKSNQEVLEFVTSGGRMDPPKNCPGPVYRIMTQCWQHQPEDRPNFAIILERIEYC
TQDPDVINTALPIEYGPLVEEEEKVPVRPKDPEGVPPKREEERSPTAAEISVRVPRGPAV
PSELHKVHGSRNKPTSLWNPTYGS
>B6D4Y6  
XXXWLQMVAWWGQGSRAIVAFDNSLDCYLTISILQNTAPKSRNLFERNPNKELKPGSPRQ
TPIFDPHWLFTTCGASGPHGPTQAQCNNAYQNSNLSVEVGSEGPLKGIQIWKVPATDTYS
ISGYGAAGGKGGKNTMMRSHGVSVLGIFNLEKDDMLYILVGQQGEDACPSTNQLIQKVCI
GENNVIEEEIRVNRS-----VHEWAGGGGGGGGATYVFKMKDGVPVPLIIAAGGGGRAYG
AKTDTFH----PERLENNSSVLGLNGNSGAAGGGGGWNDNTSLLWAGKSLQEGATGGHSC
PQAMKKWGWETRGGFGGGGGGCSSGGGGGGYIGGNAASNNDPEMDGEDGVSFISPLGILY
TPALKVMEGHGEVNIKHYLNCSHCEVDECHMDPESHKVICFCDHGTVLAEDGVSCIPTPE
PHLPLSLILSVVTSALVALVLAFSGIMIVYRRKHQELQQMELQSPEYKLSKLRTSTIMTD
YNPNYCFAGKTSSIS-----DLKEVPRKNITLIRGLGHGAFGEVYEGQVSGMPNDPSPLQ
VAVKTLPEVCSEQDELDFLMEALIISKVNHQNIVRCIGVSLQSLPRFILLELMAGGDLKS
FLRETRPRPSQPSSLAMLDLLHVARDIACGCQYLEENHFIHRDIAARNCLLTCPGPGRVA
KIGDFGMARDIYRASYYRKGGCAMLPVKWMPPEAFMEGIFTSKTDTWSFGVLLWEIFSLG
YMPYPSKSNQEVLEFVTSGGRMDPPKNCPGPVYRIMTQCWQHQPEDRPNFAIILERIEYC
TQDPDVINTALPIEYGPLVEEEEKVPVRPKDPEGVPPKREEERSPTAAEISVRVPRGPAV
PSELHKVHGSRNKPTSLWNPTYGS
>D1MAM5  
XXXWLQMVAWWGQGSRAIVAFDNSLDCYLTISILQNTAPKSRNLFERNPNKELKPGSPRQ
TPIFDPHWLFTTCGASGPHGPTQAQCNNAYQNSNLSVEVGSEGPLKGIQIWKVPATDTYS
ISGYGAAGGKGGKNTMMRSHGVSVLGIFNLEKDDMLYILVGQQGEDACPSTNQLIQKVCI
GENNVIEEEIRVNRS-----VHEWAGGGGGGGGATYVFKMKDGVPVPLIIAAGGGGRAYG
AKTDTFH----PERLENNSSVLGLNGNSGAAGGGGGWNDNTSLLWAGKSLQEGATGGHSC
PQAMKKWGWETRGGFGGGGGGCSSGGGGGGYIGGNAASNNDPEMDGEDGVSFISPLGILY
TPALKVMEGHGEVNIKHYLNCSHCEVDECHMDPESHKVICFCDHGTVLAEDGVSCIPTPE
PHLPLSLILSVVTSALVALVLAFSGIMIVYRRKHQELQQMELQSPEYKLSKLRTSTIMTD
YNPNYCFAGKTSSIS-----DLKEVPRKNITLIRGLGHGAFGEVYEGQVSGMPNDPSPLQ
VAVKTLPEVCSEQDELDFLMEALIISKFNHQNIVRCIGVSLQSLPRFILLELMAGGDLKS
FLRETRPRPSQPSSLAMLDLLHVARDIACGCQYLEENHIIHRDIAARNCLLTCPGPGRVA
KIGDFGMARDIYRASYYRKGGCAMLPVKWMPPEAFMEGIFTSKTDTWSFGVLLWEIFSLG
YMPYPSKSNQEVLEFVTSGGRMDPPKNCPGPVYRIMTQCWQHQPEDRPNFAIILERIEYC
TQDPDVINTALPIEYGPLVEEEEKVPVRPKDPEGVPPKREEERSPTAAEISVRVPRGPAV
PSELHKVHGSRNKPTSLWNPTYGS
>D1MAM1  
XXXWLQMVAWWGQGSRAIVAFDNSLDCYLTISILQNTAPKSRNLFERNPNKELKPGSPRQ
TPIFDPHWLFTTCGASGPHGPTQAQCNNAYQNSNLSVEVGSEGPLKGIQIWKVPATDTYS
ISGYGAAGGKGGKNTMMRSHGVSVLGIFNLEKDDMLYILVGQQGEDACPSTNQLIQKVCI
GENNVIEEEIRVNRS-----VHEWAGGGGGGGGATYVFKMKDGVPVPLIIAAGGGGRAYG
AKTDTFH----PERLENNSSVLGLNGNSGAAGGGGGWNDNTSLLWAGKSLQEGATGGHSC
PQAMKKWGWETRGGFGGGGGGCSSGGGGGGYIGGNAASNNDPEMDGEDGVSFISPLGILY
TPALKVMEGHGEVNIKHYLNCSHCEVDECHMDPESHKVICFCDHGTVLAEDGVSCIPTPE
PHLPLSLILSVVTSALVALVLAFSGIMIVYRRKHQELQQMELQSPEYKLSKLRTSTIMTD
YNPNYCFAGKTSSIS-----DLKEVPRKNITLIRGLGHGAFGEVYEGQVSGMPNDPSPLQ
VAVKTLPEVCSEQDELDFLMEALSISKFNHQNIVRCIGVSLQSLPRFILLELMAGGDLKS
FLRETRPRPSQPSSLAMLDLLHVARDIACGCQYLEENHFIHRDIAARNCLLTCPGPGRVA
KIGDFGMARDIYRASYYRKGGCAMLPVKWMPPEAFMEGIFTSKTDTWSFGVLLWEIFSLG
YMPYPSKSNQEVLEFVTSGGRMDPPKNCPGPVYRIMTQCWQHQPEDRPNFAIILERIEYC
TQDPDVINTALPIEYGPLVEEEEKVPVRPKDPEGVPPKREEERSPTAAEISVRVPRGPAV
PSELHKVHGSRNKPTSLWNPTYGS
>B6D4Y7  
XXXWLQMVAWWGQGSRAIVAFDNSLDCYLTISILQNTAPKSRNLFERNPNKELKPGSPRQ
TPIFDPHWLFTTCGASGPHGPTQAQCNNAYQNSNLSVEVGSEGPLKGIQIWKVPATDTYS
ISGYGAAGGKGGKNTMMRSHGVSVLGIFNLEKDDMLYILVGQQGEDACPSTNQLIQKVCI
GENNVIEEEIRVNRS-----VHEWAGGGGGGGGATYVFKMKDGVPVPLIIAAGGGGRAYG
AKTDTFH----PERLENNSSVLGLNGNSGAAGGGGGWNDNTSLLWAGKSLQEGATGGHSC
PQAMKKWGWETRGGFGGGGGGCSSGGGGGGYIGGNAASNNDPEMDGEDGVSFISPLGILY
TPALKVMEGHGEVNIKHYLNCSHCEVDECHMDPESHKVICFCDHGTVLAEDGVSCIPTPE
PHLPLSLILSVVTSALVALVLAFSGIMIVYRRKHQELQQMELQSPEYKLSKLRTSTIMTD
YNPNYCFAGKTSSIS-----DLKEVPRKNITLIRGLGHGAFGEVYEGQVSGMPNDPSPLQ
VAVKTLPEVCSEQDELDFLMEALIISKFNHQNIVRCIGVSLQSLPRFILLELMAGGDLKS
FLRETRPRPSQPSSLAMLDLLHVARDIACGCQYLEENHLIHRDIAARNCLLTCPGPGRVA
KIGDFGMARDIYRASYYRKGGCAMLPVKWMPPEAFMEGIFTSKTDTWSFGVLLWEIFSLG
YMPYPSKSNQEVLEFVTSGGRMDPPKNCPGPVYRIMTQCWQHQPEDRPNFAIILERIEYC
TQDPDVINTALPIEYGPLVEEEEKVPVRPKDPEGVPPKREEERSPTAAEISVRVPRGPAV
PSELHKVHGSRNKPTSLWNPTYGS
>B6D4Y8  
XXXWLQMVAWWGQGSRAIVAFDNSLDCYLTISILQNTAPKSRNLFERNPNKELKPGSPRQ
TPIFDPHWLFTTCGASGPHGPTQAQCNNAYQNSNLSVEVGSEGPLKGIQIWKVPATDTYS
ISGYGAAGGKGGKNTMMRSHGVSVLGIFNLEKDDMLYILVGQQGEDACPSTNQLIQKVCI
GENNVIEEEIRVNRS-----VHEWAGGGGGGGGATYVFKMKDGVPVPLIIAAGGGGRAYG
AKTDTFH----PERLENNSSVLGLNGNSGAAGGGGGWNDNTSLLWAGKSLQEGATGGHSC
PQAMKKWGWETRGGFGGGGGGCSSGGGGGGYIGGNAASNNDPEMDGEDGVSFISPLGILY
TPALKVMEGHGEVNIKHYLNCSHCEVDECHMDPESHKVICFCDHGTVLAEDGVSCIPTPE
PHLPLSLILSVVTSALVALVLAFSGIMIVYRRKHQELQQMELQSPEYKLSKLRTSTIMTD
YNPNYCFAGKTSSIS-----DLKEVPRKNITLIRGLGHGAFGEVYEGQVSGMPNDPSPLQ
VAVKTLPEVCSEQDELDFLMEALIISKFNHQNIVRCIGVSLQSLPRFILLELMAGGDLKS
FLRETRPRPSQPSSLAMLDLLHVARDIACGCQYLEENHFIHRDIAARNCLLTCPGPGRVA
KIGDFGMAQDIYRASYYRKGGCAMLPVKWMPPEAFMEGIFTSKTDTWSFGVLLWEIFSLG
YMPYPSKSNQEVLEFVTSGGRMDPPKNCPGPVYRIMTQCWQHQPEDRPNFAIILERIEYC
TQDPDVINTALPIEYGPLVEEEEKVPVRPKDPEGVPPKREEERSPTAAEISVRVPRGPAV
PSELHKVHGSRNKPTSLWNPTYGS
>B6D4Y5  
XXXWLQMVAWWGQGSRAIVAFDNSLDCYLTISILQNTAPKSRNLFERNPNKELKPGSPRQ
TPIFDPHWLFTTCGASGPHGPTQAQCNNAYQNSNLSVEVGSEGPLKGIQIWKVPATDTYS
ISGYGAAGGKGGKNTMMRSHGVSVLGIFNLEKDDMLYILVGQQGEDACPSTNQLIQKVCI
GENNVIEEEIRVNRS-----VHEWAGGGGGGGGATYVFKMKDGVPVPLIIAAGGGGRAYG
AKTDTFH----PERLENNSSVLGLNGNSGAAGGGGGWNDNTSLLWAGKSLQEGATGGHSC
PQAMKKWGWETRGGFGGGGGGCSSGGGGGGYIGGNAASNNDPEMDGEDGVSFISPLGILY
TPALKVMEGHGEVNIKHYLNCSHCEVDECHMDPESHKVICFCDHGTVLAEDGVSCIPTPE
PHLPLSLILSVVTSALVALVLAFSGIMIVYRRKHQELQQMELQSPEYKLSKLRTSTIMTD
YNPNYCFAGKTSSIS-----DLKEVPRKNITLIRGLGHGAFGEVYEGQVSGMPNDPSPLQ
VAVKTLPEVCSEQDELDFLMEALIISKCNHQNIVRCIGVSLQSLPRFILLELMAGGDLKS
FLRETRPRPSQPSSLAMLDLLHVARDIACGCQYLEENHFIHRDIAARNCLLTCPGPGRVA
KIGDFGMARDIYRASYYRKGGCAMLPVKWMPPEAFMEGIFTSKTDTWSFGVLLWEIFSLG
YMPYPSKSNQEVLEFVTSGGRMDPPKNCPGPVYRIMTQCWQHQPEDRPNFAIILERIEYC
TQDPDVINTALPIEYGPLVEEEEKVPVRPKDPEGVPPKREEERSPTAAEISVRVPRGPAV
PSELHKVHGSRNKPTSLWNPTYGS
>P97793  SP:ALK_MOUSE P97793 ALK tyrosine kinase receptor OS=Mus
XXXWLQIVTWWGPGSRATVGFDNSLDCYLTISMSLNSVPKSRNLNISGPTPIFDPTV---
------HWLFTTCGASGPHGPTQAQCNNAYQNSNLSVVVGSEGPLKGVQIWKVPATDTYS
ISGYGAAGGKGGKNTMMRSHGVSVLGIFNLEKGDTLYILVGQQGEDACPRANQLIQKVCV
GENNVIEEEIRVNRS-----VHEWAGGGGGGGGATYVFKMKDGVPVPLIIAAGGGGRAYG
AKRETFH----PERLESNSSVLGLNGNSGAAGGGGGWNDNTSLLWAGKSLLEGAAGGHSC
PQAMKKWGWETRGGFGGGGGGCSSGGGGGGYIGGNAASNNDPEMDGEDGVSFISPLGILY
TPALKVMEGHGEVNIKHYLNCSHCEVDECHMDPESHKVICFCDHGTVLADDGVSCIPTPE
PHLPLSLILSVVTSALVALVLAFSGIMIVYRRKHQELQQIQLQSPEYKLSKLRTSTIMTD
YNPNYCFAGKTSSIS-----DLKEVPRKNITLIRGLGHGAFGEVYEGQVSGMPNDPSPLQ
VAVKTLPEVCSEQDELDFLMEALIISKFNHQNIVRCIGVSLQALPRFILLELMAGGDLKS
FLRETRPRPNQPTSLAMLDLLHVARDIACGCQYLEENHFIHRDIAARNCLLTCPGAGRIA
KIGDFGMARDIYRASYYRKGGCAMLPVKWMPPEAFMEGIFTSKTDTWSFGVLLWEIFSLG
YMPYPSKSNQEVLEFVTSGGRMDPPKNCPGPVYRIMTQCWQHQPEDRPNFAIILERIEYC
TQDPDVINTALPIEYGPVVEEEEKVPMRPKDPEGMPPLL---VSPQPAKHEEASXXXXXX
XXXXXXXXXXXXXXXXXXXXXXXX
>B4KSN1  
XXXXXXXXXXXXXXXXXXXXXXXXXXXXXXXXXXXXXXXXXXXXXXXXXXXXXXXXSPAH
HDFEHTNYLLTTCDTRGMIGPTQAQCEVAYKEQNQVHVVEDQSTYKGMQKWKVPNEGHYT
IIAKGASGGLGSGGVGSSRGAVAV-AVLELLKNEELYFLVGQQGENACIKSMGHKEAGCG
AEHDLDLGQYSFRSKQDMVKNIYIENGAGGGGGGSFVFLLNQAKNEPLLVAGGGGGLGYI
DEDFQHGQKAKPLQAPESGQIHGEPLNKKTAGPGGGWRDQALSPTYGAALLQGGRGGHSC
YVELADNGTTVHRHGQGGFGGGGGGCNTGGGGGGYAGGDVYLESNGEGGSSYLRDASEIF
A---GASSGSGAIIIIPAIEGCGCDYRCVALDEYRSKVRCICPDGWSLKRDNNTACERQE
EAGSFQYLVSILMVSLAVLFICIAALIFMQRKKQAKLRHKMLVEQDLQLSRLRHNIDDSN
LNNFNPNYGCDGILNGHIDNSLPQVARESLQLVNALGKGAFGEVYLALYRHRDGDAVEMP
VAVKTLREDPKREKEEDFLKEAAIMAKFNHPNMVHLIGVCFDRQPYYIVLELLAGGDLQK
FLRENRNTPERPSLLTMKDLLFCALDVAKGCRYMESKRFIHRDIAARNCLLSSKGPGRVV
KIADFGMSRDIYRSDYYRKGGKAMLPIKWMPPEAFLDGIFTSKTDVWSFGILLWEVFSLG
RSPYPGQHNTQVMELVVRGGRLGSPTECPVSIYKIMADCWNPTPEDRPTFTSLLEHLTAC
TQDASIMNAPLPNILGPTAAERDET--------VIRPPNGEEFCPDYLVPLNGAPHAPGT
AGSYAPTAQRACTPPAVTSPXXXX
>B4H763  
XXXXXXXXXXXXXXXXXXXXXXXXXXXXXXXXXXXXXXXXXXXXXXXXXXXXXXXXSPTY
RDFEYTNYLLTSCDTRGMIGPTQSQCESAYKEQNKVHVVEDQSSYKGMQKWKVPNEGHYT
IIAKGASGGLGSGGVGSSRGSVAV-AVLELHKNEELYFLIGQQGENACIKSMGALKEAGC
GTDHDLDAQYSFRSKQDMVKNIYIENGAGGGGGGSFVFLLNQAKNEPLLVAGGGGGLGYI
DEDFQHGQKAKPLQAPESGQINGEPLNKKTAGPGGGWRDQALSPTNGAALLQGGRGGHSC
YVELADNGTTVHRHGQGGFGGGGGGCNTGGGGGGYAGGDVYLESNGEGGSSYISASREIG
DVYAGASSGPGSVIIIPAIEGCGCDYRCVAMDEFRSKVRCICPDGWSLKKDNNTACEIRE
EAGKSSFLVSILIFSLAVLFFCIAALIFMLYNRYQRKKQTKKVEQDLQLTRLRHNIDDSN
LNNFNPNYGCDAILNGHIDNSLPQVGRDSLQLVNALGKGAFGEVYMALYRHRDGDAVEMG
VAVKTLREDPKREKEEDFLKEAAIMAKFNHPNMVHLIGVCFDRQPYYIVLELLAGGDLQK
FLRENRNTPERPSLLTMKDLLFCALDVAKGCRYMESKRFIHRDIAARNCLLSSKGPGRVV
KIADFGMSRDIYRSDYYRKGGKAMLPIKWMPPEAFLDGIFTSKTDVWSFGILLWEVFSLG
RSPYPGQHNTQVMELVVRGGRLGTPTECPVSIYKIMADCWNPTPEDRPTFTSLMEHLTSC
SQDPSIMNAPLPNILGSTSS--------DRDDTIIRPPNGEEFCLPDYLVPLPSHLAQHL
PSGSAYIPPQXXXXXXXXXXXXXX
>Q28WN9  
XXXXXXXXXXXXXXXXXXXXXXXXXXXXXXXXXXXXXXXXXXXXXXXXXXXXXXXXSPTY
RDFEYTNYLLTSCDTRGMIGPTQSQCESAYKEQNKVHVVEDQSSYKGMQKWKVPNEGHYT
IIAKGASGGLGSGGVGSSRGSVAV-AVLELHKNEELYFLIGQQGENACIKSMGALKEAGC
GTDHDLDAQYSFRSKQDMVKNIYIENGAGGGGGGSFVFLLNQAKNEPLLVAGGGGGLGYI
DEDFQHGQKAKPLQAPESGQINGEPLNKKTAGPGGGWRDQALSPTNGAALLQGGRGGHSC
YVELADNGTTVHRHGQGGFGGGGGGCNTGGGGGGYAGGDVYLESNGEGGSSYISASREIG
DVYAGASSGPGSVIIIPAIEGCGCDYRCVAMDEFRSKVRCICPDGWSLKKDNNTACEIRE
EAGKSSFLVSILIFSLAVLFFCIAALIFMLYNRYQRKKQTKKVEQDLQLTRLRHNIDDSN
LNNFNPNYGCDAILNGHIDNSLPQVGRDSLQLVNALGKGAFGEVYMALYRHRDGDAVEMG
VAVKTLREDPKREKEEDFLKEAAIMAKFNHPNMVHLIGVCFDRQPYYIVLELLAGGDLQK
FLRENRNTPERPSLLTMKDLLFCALDVAKGCRYMESKRFIHRDIAARNCLLSSKGPGRVV
KIADFGMSRDIYRSDYYRKGGKAMLPIKWMPPEAFLDGIFTSKTDVWSFGILLWEVFSLG
RSPYPGQHNTQVMELVVRGGRLGTPTECPVSIYKIMADCWNPTPEDRPTFTSLMEHLTSC
SQDPSIMNAPLPNILGSTSS--------DRDDTIIRPPNGEEFCLPDYLVPLPSHLAQHL
PSGSAYIPPSACTPPAVSSPXXXX
>B1PCZ3  
XXXXXXXXXXXXXXXXXXXXXXXXXXXXXXXXXXXXXXXXPHDLDFSPLP---EPSASEA
SPIT---WWFTSCGASGPFGPTQAQCDSAYRNTNVSVVVGKEGPLRGVQMWKVPATNTYK
ISAYGAAGGKGAKNHNKRSHGVFISATFPLEKGDILYILIGHQGEDACPGRNPQTHKICL
GESSVIEDGFDSDGS-----ALKWAGGGGGGGGATYIYRMENGQPLPLLIAAGGGGKAYL
EDPESSQDQSFREQYENDTTVSGVSGRSGAAGGGGGWSDVSSLSWAGKSLVEGGQGGSSC
PEALSVLGWATFGGFGGGGGACSAGGGGGGYRGGDAPLLDDISADGQDGLSFVHPMGKIF
LQPLAAMESHGEAEIVVYLNCSHCKTQSCKRDEDTKLILCLCDSDEVLAPDNVTCAVVPG
PPSLVFIMAVIVSTVVTGVVLTCASLTLIYYRKKNHLHRIRLQSPEYKLSKIRSSTIMTD
YNPNYGYFGKAASLS-----ELKEVPRKNITLLRALGHGAFGEVYEGQVLGMNGENTAMQ
VAIKTLPEICSEQDEMDFLMEALIMSKFSHQNIVRCIGVSLQILPRFILLELMTGGDMKS
FLRLNRPRTNHSSSLSMLELLHMARDIALGCRYLEENHFIHRDIAARNCLLTCPGPDRVA
KIGDFGMARDIYRASYYRKGGRAMLPVKWMPPEAFLEGIFTCKTDTWSFGVLLWEIFSLG
YMPYPCKTNQEVLEFVTGGGRMDPPKSCPGPVYRIMTQCWQHCPEHRPNFTTILERINYC
TQDPDVINTPLPVECGPPVEEEGGTVIRPDGSGSMTPLLARSLSQD------ASPRASIT
SVTPQALKPRLXXXXXXXXXXXXX
>Q8SWV4  
XXXXXXXXXXXXXXXXXXXXXXXXXXXXXXXXXXXXXXXXXXXXXXXXXXXXXXXXSPTY
KDFEYTNYLLTTCDTRGMIGPSQAQCEAAYREQNKVHVVEDQSSYKGMQKWKVPHEGHYT
IIAKGASGGLGSGGVGSSRGSVAV-AILELHKNEELYFLVGQQGENACIKSMGVLKEAGC
GTDHDLDAQYSFRSKQDMVKNIYIENGAGGGGGGSYVFLLNQAKNEPLLVAGGGGGLGYI
DEDFQHGQKAKPLQAPESGQINGEPLNKKTAGPGGGWRDQALSPTYGAALLQGGRGGHSC
YVELADNGTSVHRHGQGGFGGGGGGCNTGGGGGGYAGGDVYLESNGEGGSSYISPSREIS
EIHAGASSGPGAIIIIPAIEGCGCDYRCVALDEFRSKVRCICPDGWSLKRDNHTACEIRE
EAGSFQYLVSILMISLAVLFICIAALIFMQRKKQSKKRHKMLVEQDLQLTRLRNNIDDSN
LNNFNPNYGCDGILNGHIDNSLPQVARDSLQLVNALGKGAFGEVYMALYRHRDGDAVEMG
VAVKTLREDPKREKEEDFLKEAAIMAKFNHPNMVHLIGVCFDRQPYYIVLELLAGGDLQK
FLRENRNTPERPSLLTMKDLLFCALDVAKGCRYMESKRFIHRDIAARNCLLSSKGPGRVV
KIADFGMSRDIYRSDYYRKGGKAMLPIKWMPPEAFLDGIFTSKTDVWSFGILLWEVFSLG
RSPYPGQHNTQVMELVVRGGRLGSPTECPVSIYKVMADCWNPTPEDRPTFITLLEHLTAC
TQDASIMNAPLPNILGPTASE--------RDDTVIRPPNGEEFCPDYL-----VPLPPGG
SXXXXXXXXXXXXXXXXXXXXXXX
>B0LVZ8  
XXXXXXXXXXXXXXXXXXXXXXXXXXXXXXXXXXXXXXXXPHDLDFSPLP---EPSASEA
SPIT---WWFTSCGASGPFGPTQAQCDSAYRNTNVSVVVGKEGPLRGVQMWKVPATNTYK
ISAYGAAGGKGAKNHNKRSHGVFISATFPLEKGDILYILIGHQGEDACPGRNPQTHKICL
GESSVIEDGFDSDGS-----ALKWAGGGGGGGGATYIYRMENGQPLPLLIAAGGGGKAYL
EDPESSQDQSFREQYENDTTVSGVSGRSGAAGGGGGWSDVSSLSWAGKSLVEGGQGGSSC
PEALSVLGWATFGGFGGGGGACSAGGGGGGYRGGDAPLLDDISADGQDGLSFVHPMGKIF
LQSLAAMESHGEAEIVVYLNCSHCKTQSCKRDEDTKLILCLCDSDEVLAPDNVTCQFINK
PPSLVFIMAVIVSTVVTGVVLTCASLTLIYYRKKNHLHRIRLQSPEYKLSKIRSSTIMTD
YNPNYGYFGKAASLS-----ELKEVPRKNITLLRALGHGAFGEVYEGQVLGMNGENTAMQ
VAIKTLPEICSEQDEMDFLMEALIMSKFSHQNIVRCIGVSLQILPRFILLELMTGGDMKS
FLRLNRPRTNHSSSLSMLELLHMARDIALGCRYLEENHFIHRDIAARNCLLTCPGPDRVA
KIGDFGMARDIYRASYYRKGGRAMLPVKWMPPEAFLEGIFTCKTDTWSFGVLLWEIFSLG
YMPYPCKTNQEVLEFVTGGGRMDPPKSCPGPVYRIMTQCWQHCPEHRPNFTTILERINYC
TQDPDVINTPLPVECGPPVEEEGGTVIRPDGSGSMTPLLARSLSQD------ASPRASIT
SVTPQALKPRLXXXXXXXXXXXXX
>B3MDK2  
XXXXXXXXXXXXXXXXXXXXXXXXXXXXXXXXXXXXXXXXXXXXXXXXXXXXXXXXSPTY
KDFEHTNYLLTSCDTRGMIGPTQAQCESSYREQNKVHVVEDQSTYKGMQKWKVPHEGHYT
IIAKGASGGLGSGGVGSSRGSVAV-AILELHKHEELYFLVGQQGENACIKSMGLHKEPGC
GTDHDLDAQYSFRSKQDMVKKIYIENGAGGGGGGSYVFLLNQAKNEPLLVAGGGGGLGYI
DEDFQHGQKAKPNQPPESGQINGEPLNKKTAGPGGGWRDQALSPTYGAALLQGGRGGHSC
YVELADNGTSVHRHGQGGFGGGGGGCNTGGGGGGYAGGDVYLESNGEGGSSYISPTREIS
GIQAGASSGAGAIIIIPAIEGCGCDYRCVALDEFRSTVRCICPDGWSLKRDNNTACEIRE
EAGSFQYLVSFLMVSLAVLFICIALLIFMQRKKQSKKRHKMLVEQDLQLTRLRNNIDDSN
LNNFNPNYGCDGILNGHIDNSLPQVARDSLQLVNALGKGAFGEVYMALYRHRDGDAVEMG
VAVKTLREDPKREKEEDFLKEAAIMAKFNHPNMVHLIGVCFDRQPYYIVLELLAGGDLQK
FLRENRNTPERPSLLTMKDLLFCALDVAKGCRYMESKRFIHRDIAARNCLLSSKGPGRVV
KIADFGMSRDIYRSDYYRKGGKAMLPIKWMPPEAFLDGIFTSKTDVWSFGILLWEVFSLG
RSPYPGQHNTQVMELVVRGGRLGSPTECPVSIYKVMADCWNPTPEDRPTFISLLEHLTAC
TQDPSIMNAPLPNILGPTASE--------RDDTVIRPPNGEEFCPDYL-----VPLPPGG
SSGLXXXXXXXXXXXXXXXXXXXX
>Q7KJ08  
XXXXXXXXXXXXXXXXXXXXXXXXXXXXXXXXXXXXXXXXXXXXXXXXXXXXXXXXSPTY
KDFEYTNYLLTTCDTRGMIGPSQAQCEAAYREQNKVHVVEDQSSYKGMQKWKVPHEGHYT
IIAKGASGGLGSGGVGSSRGSVAV-AILELHKNEELYFLVGQQGENACIKSMGVLKEAGC
GTDHDLDAQYSFRSKQDMVKNIYIENGAGGGGGGSYVFLLNQAKNEPLLVAGGGGGLGYI
DEDFQHGQKAKPLQAPESGQINGEPLNKKTAGPGGGWRDQALSPTYGAALLQGGRGGHSC
YVELADNGTSVHRHGQGGFGGGGGGCNTGGGGGGYAGGDVYLESNGEGGSSYISPSREIS
EIHAGASSGPGAIIIIPAIEGCGCDYRCVALDEFRSKVRCICPDGWSLKRDNHTACEIRE
EAGSFQYLVSILMISLAVLFICIAALIFMQRKKQSKKRHKMLVEQDLQLTRLRNNIDDSN
LNNFNPNYGCDGILNGHIDNSLPQVARDSLQLVNALGKGAFGEVYMALYRHRDGDAVEMG
VAVKTLREDPKREKEEDFLKEAAIMAKFNHPNMVHLIGVCFDRQPYYIVLELLAGGDLQK
FLRENRNTPERPSLLTMKDLLFCALDVAKGCRYMESKRFIHRDIAARNCLLSSKGPGRVV
KIADFGMSRDIYRSDYYRKGGKAMLPIKWMPPEAFLDGIFTSKTDVWSFGILLWEVFSLG
RSPYPGQHNTQVMELVVRGGRLGSPTECPVSIYKVMADCWNPTPEDRPTFITLLEHLTAC
TQDASIMNAPLPNILGPTASE--------RDDTVIRPPNGEEFCPDYL-----VPLPPGG
SXXXXXXXXXXXXXXXXXXXXXXX
>B3NPG2  
XXXXXXXXXXXXXXXXXXXXXXXXXXXXXXXXXXXXXXXXXXXXXXXXXXXXXXXXSPTY
KDFEYTNYLLTSCDTRGMIGPSQAQCEAAYKEQNKVHVVEDQSSYKGMQKWKVPHEGHYT
IIAKGASGGLGSGGVGSSRGSVAV-AILELHKHEELYFLVGQQGENACIKSMGVLKEAGC
GTDHDLDAQYSFRSKQDMVKNIYIENGAGGGGGGSYVFLLNQAKNEPLLVAGGGGGLGYI
DEDFQHGQKAKPLQAPESGQINGEPLNKKTAGPGGGWRDQALSPTYGAALLQGGRGGHSC
YVELADNGTSVHRHGQGGFGGGGGGCNTGGGGGGYAGGDVYLESNGEGGSSYISPSREIS
EIHAGASSGPGAIIIIPAIEGCGCDYRCVALDEFRSKVRCICPDGWSLKRDNHTACEIRE
EAGSFQYLVSILMISLAVLFICIGALIFMQRKKQSKKRHKMLVEQDLQLTRLRNNIDDSN
LNNFNPNYGCDGILNGHIDNSLPQVARDSLQLVNALGKGAFGEVYMALYRHRDGDAVEMG
VAVKTLREDPKREKEEDFLKEAAIMAKFNHPNMVHLIGVCFDRQPYYIVLELLAGGDLQK
FLRENRNTPERPSLLTMKDLLFCALDVAKGCRYMESKRFIHRDIAARNCLLSSKGPGRVV
KIADFGMSRDIYRSDYYRKGGKAMLPIKWMPPEAFLDGIFTSKTDVWSFGILLWEVFSLG
RSPYPGQHNTQVMELVVRGGRLGSPTECPVSIYKVMADCWNPTPEDRPTFITLLEHLTAC
TQDASIMNAPLPNILGPTASE--------RDDTVIRPPNGEEFCPDYL-----VPLPPGG
SXXXXXXXXXXXXXXXXXXXXXXX
>B4P5X8  
XXXXXXXXXXXXXXXXXXXXXXXXXXXXXXXXXXXXXXXXXXXXXXXXXXXXXXXXSPTY
KDFEYTNYLLTSCDTRGMIGPSQAQCEAAYKEQNKVHVVEDQSSYKGMQKWKVPHEGHYT
IIAKGASGGLGSGGVGSSRGSVAV-AILELHKHEELYFLVGQQGENACIKSMGVLKEAGC
GTDHDLDAQYSFRSKQDMVKNIYIENGAGGGGGGSYVFLLNQAKNEPLLVAGGGGGLGYI
DEDFQHGQKAKPLQAPESGQINGEPLNKKTAGPGGGWRDQALSPTYGAALLQGGRGGHSC
YVELADNGTSVHRHGQGGFGGGGGGCNTGGGGGGYAGGDVYLESNGEGGSSYISPSREIS
EILAGASSGPGAIIIIPAIEGCGCDYRCVALDEFRSKVRCICPDGWSLKRDNHTACEIRE
EAGSFQYLVSILMISLAVLFICIAALIFMQRKKQSKKRHKMLVEQDLQLTRLRNNIDDSN
LNNFNPNYGCDGILNGHIDNSLPQVARDSLQLVNALGKGAFGEVYMALYRHRDGDAVEMG
VAVKTLREDPKREKEEDFLKEAAIMAKFNHPNMVHLIGVCFDRQPYYIVLELLAGGDLQK
FLRENRNTPERPSLLTMKDLLFCALDVAKGCRYMESKRFIHRDIAARNCLLSSKGPGRVV
KIADFGMSRDIYRSDYYRKGGKAMLPIKWMPPEAFLDGIFTSKTDVWSFGILLWEVFSLG
RSPYPGQHNTQVMELVVRGGRLGSPTECPVSIYKVMADCWNPTPEDRPTFITLLEHLTAC
TQDASIMNAPLPNILGPTASE--------RDDTVIRPPNGEEFCPDYL-----VPLPPGG
SXXXXXXXXXXXXXXXXXXXXXXX
>B4JWM9  
XXXXXXXXXXXXXXXXXXXXXXXXXXXXXXXXXXXXXXXXXXXXXXXXXXXXXXXXSPSH
HDFEHTNYLLTTCDTRGMIGPTQTQCESAYREQNQVHVVEDQSTYKGMQKWKVPNEGHYT
IIAKGASGGLGSGGVGSSRGSVAV-AVLELLKNEELYFLVGQQGENACIKSMGHKEAGCG
TEHDLDLAQYSFRSKQDMVKNIYIENGAGGGGGGSFVFLLNQAKNEPLLVAGGGGGLGYI
DEDFQHGQKAKPLQPAESGQINGEPLNKKTAGPGGGWRDQALSPTYGAALLQGGRGGHSC
YVELADNGTTVHRHGQGGFGGGGGGCNTGGGGGGYAGGDVYLESNGEGGTSYISSSRSLR
DASAGSSSGAGAIIIIPAIEGCGCDYRCVALDEFRSKVRCICPDGWSLKRDNNTACERQE
EAGKSSFQNLVLMISLAVLFFCIAALIFMQRKKQAKLRHKMLVEQDLQLSRLRHNIDDSN
LNNFNPNYGCDGILNGHIDNSLPQVARESLQLVNALGKGAFGEVYLALYRHRDGDAVEMP
VAVKTLREDPKREKEEDFLKEAAIMAKFNHPNMVHLIGVCFDRQPYYIVLELLAGGDLQK
FLRENRNTPERPSLLTMKDLLFCALDVAKGCRYMESKRFIHRDIAARNCLLSSKGPGRVV
KIADFGMSRDIYRSDYYRKGGKAMLPIKWMPPEAFLDGIFTSKTDVWSFGILLWEVFSLG
RSPYPGQHNTQVMELVVRGGRLGSPTECPVAIYKIMADCWNPTPEDRPTFTSLLEHLTTC
TQDASIMNAPLPNILGPTASERDET--------VIRPPNGDEFCXXXXXXXXXXXXXXXX
XXXXXXXXXXXXXXXXXXXXXXXX
>Q17E33  
XXXXXXXXXXXXXXXXXXXXXXXXXXXXXXXXXXXXXXXXXXXXXXXXXXXXXXXXXXPH
KDFVGKSYILNTCGAKGQQGPTPADCLASYNNTEALNAIHVIDPFKGIQAWKVPNEGYYT
IIAKGAGGGLGSGGVGSSRGAVVLS-VLELHKDEEIYILVGQSGEHACIKSMGLRDETCE
PKNKQYPHDLYF-SKTHQVKNTVIEDGAGGGGGGTYVFLLNANTAVPLLVAGGGGGLGVG
RYLDED-IQHGKKFIPGKKDVSGTAHLEAEAGPGGGWRAQADDPKNGASLLEGGRGGVPC
YQPRGTHGQGGFGGGG------GGCDTGGGGGGFSGGDTMINSTNGQGGSSFLASKRELS
MEYSGANSGHGSVLIIPAIQGCGCDYRCVALDEYRSTVGCICPDGWTLKPDNYTACELQT
ETLEMKYLIMFFVIVVIILCAALASLILIQRKRQAALRHKMLLEQDLQLSRLRSTADDTG
LTNFNPNYGCDGILNGNVDKSLPQVARESLRLVKALGQGAFGEVYQGLYRHRDGDAVEMP
VAVKTLPEMSTGQAESDFLMEAAIMAKFNHPNIVHLIGVCFDRHPRFIVLELLAGGDLKN
FLREGRNKPERPSPLTMKDLIFCALDVAKGCRYMESKRFIHRDIAARNCLLSSKGPGRVV
KIADFGMARDIYRSDYYRKGGKAMLPIKWMPPEAFLDGIFTSKTDVWSFGVLLWEVFSLG
LMPYTGLPNRDVMQLVTGGGRLDAPPGCPNAIYRIMADCWNPTPEERPTFSNLLERLTTC
TQDPEVMNAPLPSFFRPPSNERDTTIMPGNDDFCLQVPNSSDXXXXXXXXXXXXXXXXXX
XXXXXXXXXXXXXXXXXXXXXXXX
>Q8JFV0  
XXXXXXXXXXXXXXXXXXXXXXXXXXXXXXXXXXXXXXXXXXXXXXXXXXXXXXXXXXXX
XXXXXXTWWFTSCGASGPFGPTQAQCDSAYRNTNVSVVVGKEGPLRGVQMWKVPATNTYK
ISAYGAAGGKGAKNHNKRSHGVFISATFPLEKGDILYILIGHQGEDACPGRNPQTHKICL
GESSVIEDGFDSDGS-----ALKWAGGGGGGGGATYIYRMENGQPLPLLIAAGGGGKAYL
EDPESSQDQSFREQYENDTTVSGVSGRSGAAGGGGGWSDVSSLSWAGKSLVEGGQGGSSC
PEALSVLGWATFGGFGGGGGACSAGGGGGGYRGGDAPLLDDISADGQDGLSFVHPMGKIF
LQPLAAMESHGEAEIVVYLNCSHCKTQSCKRDEDTKLILCLCDSDEVLAPDNVTCQFINK
PPSLVFIMAVIVSTVVTGVVLTCASLTLIYYRKKNHLHRIRLQSPEYKLSKIRSSTIMTD
YNPNYGYFGKAASLS-----ELKEVPRKNITLLRALGHGAFGEVYEGQVLGMNGENTAMQ
VAIKTLPEICSEQDEMDFLMEALIMSKFSHQNIVRCIGVSLQILPRFILLELMTGGDMKS
FLRLNRPRTNHSSSLSMLELLHMARDIALGCRYLEENHFIHRDIAARNCLLTCPGPDRVA
KIGDFGMARDIYRASYYRKGGRAMLPVKWMPPEAFLEGIFTCKTDTWSFGVLLWEIFSLG
YMPYPCKTNQEVLEFVTGGGRMDPPKSCPGPVYRIMTQCWQHCPEHRPNFTTILERINYC
TQDPDVINTPLPVECGPPVEEEGGT--------VIRPDGSGSMTPLLVLSQDASPRASIT
SVTPQALKPRLXXXXXXXXXXXXX
>B4MIU7  
XXXXXXXXXXXXXXXXXXXXXXXXXXXXXXXXXXXXXXXXXXXXXXXXXXXXXXXXXPTH
RDFEHTNYLLTSCDTRGMIGPTQAQCESAYREQNKVHVVEDQSTYKGMQKWKVPNEGHYT
VIVKGASGGLGSGGVGSSRGSVAVS-VLELHKNEELYFLVGQEGENACIKSMGHKEAGCG
AEHDVDLGQYSFRSKQDMVKKIYIENGAGGGGGGSYVFLLNQAKNEPLLVAGGGGGLGYI
DEDFQHGQKSKAQQAPESGQINGEPLNKKTAGPGGGWRDQALSPTFGAALLQGGRGGHSC
YVELADNGTSVHRHGQGGFGGGGGGCNTGGGGGGYKGGDVFLESNGEGGSSYISSLRDTS
TIYAGASSGAGAIIIIPAIEGCGCDYRCVALDEFRSAVRCICPDGWSLKRDNNTACEIHE
EAGSFQYLVSILLMSLAVLFICIAALVFMQRKKQAKLRHKMLVEQDLQLSRLRHNIDDSN
LNNFNPNYGCDGILNGHIDNSLPQVARESLQLVNALGKGAFGEVYLALYRHRDGDAVEMP
VAVKTLREDPKREKEEDFLKEAAIMAKFNHPNMVHLIGVCFDRQPYYIVLELLAGGDLQK
FLRENRNTPERVSLLTMKDLLFCALDVAKGCRYMESKRFIHRDIAARNCLLSSKGPGRVV
KIADFGMSRDIYRSDYYRKGGKAMLPIKWMPPEAFLDGIFTSKTDVWSFGILLWEVFSLG
RSPYPGQHNTQVMELVVRGGRLGSPTECPVAIYKIMADCWNPTPEDRPTFTSLLEHLTAC
TQDPSIMNAPLPNILGPTASE--------RDDTVIRPPNGEEFCTDNVNNPLAMPGGAGG
SSQRQQQNAASCTPXXXXXXXXXX
>Q7PV77  
XXXXXXXXXXXXXXXXXXXXXXXXXXXXLSPECFGLNIPAEHLQGYNYWDPRIGGAKQPH
KDFVGKSFLLNTCGAKGQQGPTPADCLSSYNNTEAAVHVIDSHPFKGIQAWKVPNEGYYT
IIAKGAGGGLGSGGVGSSRGAMVLS-VLELHKDEEIYILVGQSGEHACIKSMGYRDESCE
TRNKQLNDTTWMHSKTQQVKNTIIEEGAGGGGGGTYVFLLNANTAVPLLVAGGGGGLGVG
RYLDDD-IQHGKKYLSFKKDVSGTAHSTRQAGPGGGWRAQADDPHYGASLLEGGRGGLPC
YTPRGTHGQGGFGGGG------GGCDTGGGGGGYSGGDTMINSTNGEGGSSFMASKRELS
MEFSGANGGHGAVLIIPAIQGCGCDYRCVALDEYRATVGCICPDGWTLKPDNYTACELPT